LTspice 24.0.12 for Windows
Circuit: * C:\Users\sergio.ibarra\Downloads\NTC\NTC.asc
Start Time: Tue Apr  8 17:32:20 2025
solver = Normal
Maximum thread count: 8



Direct Newton iteration for .op point succeeded.










































































































































































































































































































































































































































































































































tnom = 27
temp = 150
method = modified trap
Total elapsed time: 2.397 seconds.

